*Heading
 Job simulates a loaded cantilever beam
** Job name: CantileverBeamJob Model name: Cantilever Beam
** Generated by: Abaqus/CAE Learning Edition 2022
*Preprint, echo=NO, model=NO, history=NO, contact=NO
**
** PARTS
**
*Part, name=Beam
*Node
      1,  0.100000001, -0.100000001,           5.
      2,  0.100000001,           0.,           5.
      3,  0.100000001,  0.100000001,           5.
      4,  0.100000001, -0.100000001,    4.9000001
      5,  0.100000001,           0.,    4.9000001
      6,  0.100000001,  0.100000001,    4.9000001
      7,  0.100000001, -0.100000001,   4.80000019
      8,  0.100000001,           0.,   4.80000019
      9,  0.100000001,  0.100000001,   4.80000019
     10,  0.100000001, -0.100000001,   4.69999981
     11,  0.100000001,           0.,   4.69999981
     12,  0.100000001,  0.100000001,   4.69999981
     13,  0.100000001, -0.100000001,    4.5999999
     14,  0.100000001,           0.,    4.5999999
     15,  0.100000001,  0.100000001,    4.5999999
     16,  0.100000001, -0.100000001,          4.5
     17,  0.100000001,           0.,          4.5
     18,  0.100000001,  0.100000001,          4.5
     19,  0.100000001, -0.100000001,    4.4000001
     20,  0.100000001,           0.,    4.4000001
** ... 439 like lines cut
*Element, type=C3D8R
  1, 154, 155, 158, 157,   1,   2,   5,   4
  2, 155, 156, 159, 158,   2,   3,   6,   5
  3, 157, 158, 161, 160,   4,   5,   8,   7
  4, 158, 159, 162, 161,   5,   6,   9,   8
  5, 160, 161, 164, 163,   7,   8,  11,  10
  6, 161, 162, 165, 164,   8,   9,  12,  11
  7, 163, 164, 167, 166,  10,  11,  14,  13
  8, 164, 165, 168, 167,  11,  12,  15,  14
  9, 166, 167, 170, 169,  13,  14,  17,  16
 10, 167, 168, 171, 170,  14,  15,  18,  17
 11, 169, 170, 173, 172,  16,  17,  20,  19
 12, 170, 171, 174, 173,  17,  18,  21,  20
 13, 172, 173, 176, 175,  19,  20,  23,  22
 14, 173, 174, 177, 176,  20,  21,  24,  23
 15, 175, 176, 179, 178,  22,  23,  26,  25
 16, 176, 177, 180, 179,  23,  24,  27,  26
 17, 178, 179, 182, 181,  25,  26,  29,  28
 18, 179, 180, 183, 182,  26,  27,  30,  29
 19, 181, 182, 185, 184,  28,  29,  32,  31
 20, 182, 183, 186, 185,  29,  30,  33,  32
** ... 180 like lines cut
*Nset, nset=Set-1, generate
   1,  459,    1
*Elset, elset=Set-1, generate
   1,  200,    1
** Section: Beam-Section
*Solid Section, elset=Set-1, material="AISI 1005 Steel"
,
*End Part
**  
**
** ASSEMBLY
**
*Assembly, name=Assembly
**  
*Instance, name="Beam Instance", part=Beam
*End Instance
**  
*Nset, nset=Set-1, instance="Beam Instance"
   1,   2,   3, 154, 155, 156, 307, 308, 309
*Elset, elset=Set-1, instance="Beam Instance"
   1,   2, 101, 102
*Elset, elset=_Surf-1_S4, internal, instance="Beam Instance", generate
   2,  200,    2
*Surface, type=ELEMENT, name=Surf-1
_Surf-1_S4, S4
*End Assembly
** 
** MATERIALS
** 
*Material, name="AISI 1005 Steel"
*Density
7872.,
*Elastic
 2e+11, 0.29
** 
** BOUNDARY CONDITIONS
** 
** Name: Encastre one end Type: Symmetry/Antisymmetry/Encastre
*Boundary
Set-1, ENCASTRE
** ----------------------------------------------------------------
** 
** STEP: Apply load
** 
*Step, name="Apply load", nlgeom=NO
Load is applied during this step
*Static
1., 1., 1e-05, 1.
** 
** LOADS
** 
** Name: Uniform applied pressure   Type: Pressure
*Dsload
Surf-1, P, 10.
** 
** OUTPUT REQUESTS
** 
*Restart, write, frequency=0
** 
** FIELD OUTPUT: Selected FIeld Outputs
** 
*Output, field
*Node Output
CF, RF, U
*Element Output, directions=YES
PEMAG, S
** 
** HISTORY OUTPUT: Deafult History Outputs
** 
*Output, history, variable=PRESELECT
*End Step
